lib/rce_framework_V2.0/casos de uso/AnaREDE/Madeira_2800MW (MJ).dat
( Despacho Madeira
( Bipolo 1:1155 MW - Modo de operação: BIPOLAR NORMAL
( Bipolo 2:1155 MW - Modo de operação: BIPOLAR NORMAL
( Back-to-Back:280 MW
( Total Madeira:2590 MW
(
(
( Modo de operação dos bipolos
DELO
(No) O ( V ) ( P ) (   Identificacao  ) M E
1001 M                                  N L
1002 M                                  N L
1003 M                                  N L
1004 M                                  N L
99999
(
( Despacho Back-to-Back e Bipolos
DCCV
(No) O FMC (Vsp) (Marg (IMax (Dsp) (Dtn) (Dtm) (Tmn) (Tmx) (S (Vmn (Tmh) (Ttr)  
( Bipolo 1
1201 M     577.5               15.    5.   85.
1202 M     577.5               17.   17.   80.
1203 M     577.5               15.    5.   85.
1204 M     577.5               17.   17.   80.
(
( Bipolo 2
1205 M     577.5               13.    5.  163.
1206 M     577.5              18.5  18.5   19.
1207 M     577.5               13.    5.  163.
1208 M     577.5              18.5  18.5   19.
(
( Back-to-Back
2201 M     140                      -9.5  18.1
2202 M     140                       22.  35.9
2203 M     140                      -9.5  18.1
2204 M     140                       22.  35.9
99999
(
DCBA                                                                       
(No) O TP(   Nome   )Gl( Vd)                                      ( Rs)(Elo
( Bipolo 1
1101 M                  600.
1102 M                  600.
1105 M                  600.
1106 M                  600.
( Bipolo 2
1109 M                  600.
1110 M                  600.
1113 M                  600.
1114 M                  600.
( Back-to-Back
2101 M                 101.8                                               
2102 M                 101.8                                               
2105 M                 101.8                                               
2106 M                 101.8                                               
99999                                                                      
(
( Filtragem Mínima Inversora Araraquara
DBSH
(NFr) O (NTo) Nc C (Vmn (Vmx Bctrl (Qini) T A (Extr
7057  M
(G  O E (U) UOp (Sht )
10  M        3
20  M        0
30  M        2
40  M        0
99999
(
( Filtragem Mínima Retificadora Porto Velho
DBSH
(NFr) O (NTo) Nc C (Vmn (Vmx Bctrl (Qini) T A (Extr
7055  M
(G  O E (U) UOp (Sht )
10  M        0
20  M        3
30  M        3
99999
(
( Filtragem Mínima Back-to-Back
DBSH
(Porto Velho 500 kV
(NFr) O (NTo) Nc C (Vmn (Vmx Bctrl (Qini) T A (Extr
7059  M
(G  O E (U) UOp (Sht )
10  M        2
FBAN
(Porto Velho 230 kV
(NFr) O (NTo) Nc C (Vmn (Vmx Bctrl (Qini) T A (Extr
7054  M
(G  O E (U) UOp (Sht )
10  M        1
20  M        3
FBAN
99999
(
( Alteração de Geração com Inércia MÍNIMA
(
( Planilha: FLOW_v9.0 1.xlsm
( Aba     : R_REDESPACHO
( Usuário : marcos.souza@RJ-NB-352-33204
( Data    : quinta-feira, 2 de abril de 2026 - 11:37:01
(
DBAR
(Num)OETGb(   nome   )Gl( V)( A)( Pg)( Qg)( Qn)( Qm)(Bc  )( Pl)( Ql)( Sh)Are(Vf)
 7050M    SA-MD-UHE003           216.     -99.9 99.9                
 7062M    SA-LR-UHE005           324.     -166.166.5                
 7064M    SA-ME-UHE010           649.      -333  333                
 7051M    JIR-MDUHE011           788.     -403.403.7                
 7061M    JIR-MEUHE009           620.     -330.330.3                
99999
DLIN
(De )d O d(Pa )NcEP ( R% )( X% )(Mvar)(Tap)(Tmn)(Tmx)(Phs)(Bc  )(Cn)(Ce)Ns
 7053  M   7050 1          4.266
 7063  M   7062 1          3.088
 7065  M   7064 1          1.717
 7056  M   7051 1           1.64
 7060  M   7061 1          1.951
99999
DGER
(No ) O (Pmn ) (Pmx ) ( Fp) (FpR) (FPn) (Fa) (Fr) (Ag) ( Xq) (Sno)
 7050 M                     3
 7062 M                     5
 7064 M                     10
 7051 M                     11
 7061 M                     9
99999
EXLF
FIM
